AGF01I2_VLN.Txt

SYMMETRICAL COMPONENT VOLTAGES BY BUS (for 3-phase buses)

Bus                              Mag:   V1 (kV)    p.u.     V2 (kV)   %V2/V1    V0 (kV)    %V0/V1

pac_agf01i2                         8.366       1.05  4.765E-006  5.696E-005   0.03512    0.4198
3830321438424478                    8.383      1.052    0.01291      0.154   0.02667    0.3181
3832908438424010                    8.382      1.052    0.01287     0.1536   0.02667    0.3182
3833184838424067                    8.382      1.052    0.01287     0.1536   0.02667    0.3182
3833191238424057                    8.382      1.052    0.01287     0.1536   0.02667    0.3182
3792495038472522f                   8.313      1.043   0.007702    0.09265   0.03608    0.4341
3792524438472471                    8.313      1.043   0.007702    0.09265   0.03608    0.4341
3792457438471814                    8.313      1.043   0.007702    0.09265   0.03608    0.4341
3792425838471493fl                  8.313      1.043   0.007702    0.09265   0.03608    0.4341
3833391638424105                    8.382      1.052    0.01287     0.1536   0.02667    0.3182
3823998438434266                    7.897     0.9912    0.04297     0.5442    0.0609    0.7712
3823618738434038                    7.897     0.9912    0.04296     0.5441    0.0609    0.7712
3807465438460215                    8.262      1.037    0.00927     0.1122   0.05991    0.7251
3807286538459331                    8.232      1.033    0.01007     0.1223   0.05997    0.7285
3823230938453658                    8.383      1.052    0.02651     0.3163    0.0263    0.3137
3823234438453649                    8.383      1.052    0.02651     0.3163    0.0263    0.3137
3808995438471126                    7.938     0.9963    0.05958     0.7505   0.04539    0.5719
3809725638471089                    7.938     0.9963    0.05958     0.7505   0.04539    0.5719
3825340538462183                    8.355      1.049     0.0267     0.3196    0.0263    0.3148
3825216638461804                    8.356      1.049    0.02663     0.3188    0.0263    0.3148
3792490538472530                    8.313      1.043   0.007702    0.09265   0.03608    0.4341
3792495038472522                    8.313      1.043   0.007702    0.09265   0.03608    0.4341
3807544038470691f                   7.939     0.9965    0.05956     0.7502   0.04539    0.5717
3807857238470801                    7.939     0.9965    0.05956     0.7502   0.04539    0.5717
3807537838470693                    7.939     0.9965    0.05956     0.7502   0.04539    0.5717
3807544038470691                    7.939     0.9965    0.05956     0.7502   0.04539    0.5717
3829758438458307f                   8.373      1.051    0.02644     0.3158    0.0263    0.3141
3831787538456802                    8.373      1.051    0.02643     0.3157    0.0263    0.3141
3807853138468335                    7.942     0.9969    0.05944     0.7484   0.04539    0.5715
3807845638468351                    7.942     0.9969    0.05944     0.7484   0.04539    0.5715
3818436538435285                      7.9     0.9915    0.04168     0.5276    0.0609    0.7709
3818430038435283                      7.9     0.9915    0.04168     0.5276    0.0609    0.7709
3807064638458392                    8.201      1.029    0.01208     0.1473   0.06002    0.7319
3806657138456413                    8.135      1.021    0.01817     0.2233   0.06014    0.7393
3822496438467357                    8.345      1.047    0.02872     0.3442    0.0263    0.3151
3821749538467433                    8.345      1.047    0.02882     0.3454    0.0263    0.3152
3824651238464964                    8.347      1.048    0.02788      0.334    0.0263    0.3151
3824373838465059                    8.347      1.048    0.02796      0.335    0.0263    0.3151
3824373838465059f                   8.346      1.048    0.02796      0.335    0.0263    0.3151
3824152538465219                    8.346      1.048    0.02804     0.3359    0.0263    0.3151
3823909738465314                    8.346      1.048    0.02811     0.3368    0.0263    0.3151
3823641538465500                    8.346      1.048     0.0282     0.3378    0.0263    0.3151
3823397438465618                    8.346      1.048    0.02825     0.3385    0.0263    0.3151
3822552138467311                    8.345      1.047    0.02871     0.3441    0.0263    0.3151
3822630838468142                    8.345      1.047    0.02883     0.3454    0.0263    0.3151
3823349238433911                    7.897     0.9912    0.04295     0.5439    0.0609    0.7712
3823347738433917                    7.897     0.9912    0.04295     0.5439    0.0609    0.7712
3813437938425591                    8.423      1.057    0.01611     0.1913   0.02658    0.3156
3813564238425600                    8.423      1.057    0.01611     0.1913   0.02658    0.3156
3813368738425586f                   8.423      1.057    0.01611     0.1913   0.02658    0.3156
3813361438425579                    8.423      1.057    0.01611     0.1913   0.02658    0.3156
3808624738471984f                   7.936      0.996    0.05957     0.7506   0.04539     0.572
3808620838472105                    7.935      0.996    0.05957     0.7506   0.04539     0.572
3808989338471906                    7.936     0.9961    0.05957     0.7506   0.04539     0.572
3808624738471984                    7.936      0.996    0.05957     0.7506   0.04539     0.572
3808949638471204                    7.938     0.9963    0.05958     0.7505   0.04539    0.5719
3807845638468351f                   7.942     0.9969    0.05944     0.7484   0.04539    0.5715
3807826338468385                    7.942     0.9969    0.05944     0.7484   0.04539    0.5715
3822561938422934f                   8.393      1.053     0.0136      0.162   0.02667    0.3177
3822524938422940                    8.393      1.053     0.0136      0.162   0.02667    0.3177
3823352238424592f                   8.394      1.053    0.01363     0.1623   0.02667    0.3177
3823542638424463                    8.393      1.053     0.0136      0.162   0.02667    0.3177
3823577938424261                    8.393      1.053     0.0136      0.162   0.02667    0.3177
3822561938422934                    8.393      1.053     0.0136      0.162   0.02667    0.3177
3823543938424456                    8.393      1.053     0.0136      0.162   0.02667    0.3177
3823543938424456f                   8.393      1.053     0.0136      0.162   0.02667    0.3177
3823589238454806f                   8.378      1.052    0.02638     0.3148    0.0263    0.3139
3823601038454802                    8.378      1.052    0.02638     0.3148    0.0263    0.3139
3823713138455197                    8.377      1.051    0.02635     0.3145    0.0263     0.314
3823581238454808                    8.378      1.052    0.02638     0.3148    0.0263    0.3139
3823589238454806                    8.378      1.052    0.02638     0.3148    0.0263    0.3139
3809654338436234f                   7.919     0.9939    0.03494     0.4413    0.0609     0.769
3809641038436229                    7.919     0.9939    0.03494     0.4413    0.0609     0.769
3807910538448917                    8.005      1.005    0.03345     0.4179   0.06065    0.7577
3806825538449055                    8.011      1.006    0.03202     0.3996   0.06061    0.7566
3829701338457121                    8.373      1.051    0.02645     0.3159    0.0263    0.3141
3829924638456724                    8.373      1.051    0.02645     0.3159    0.0263    0.3141
3809476338437584                    7.927      0.995    0.03445     0.4345   0.06087    0.7678
3809665938436236                    7.919     0.9939    0.03494     0.4413    0.0609     0.769
3809654338436234                    7.919     0.9939    0.03494     0.4413    0.0609     0.769
3811641038424163                    8.424      1.057    0.01602     0.1901   0.02659    0.3156
3811808938424078                    8.424      1.057    0.01599     0.1899   0.02659    0.3157
3805723138449467                    8.019      1.006    0.03041     0.3793   0.06057    0.7553
3807260938459244f                   8.229      1.033    0.01022     0.1242   0.05997    0.7288
3807134238459282                    8.229      1.033    0.01022     0.1242   0.05997    0.7288
3807267238459242                    8.229      1.033    0.01022     0.1242   0.05997    0.7288
3807260938459244                    8.229      1.033    0.01022     0.1242   0.05997    0.7288
3807497938460402                    8.269      1.038   0.009272     0.1121    0.0599    0.7245
3791380538472620                    8.332      1.046   0.004916      0.059   0.03574     0.429
3791353238472714                    8.334      1.046   0.004666    0.05599   0.03571    0.4285
3791323838473578f                   8.349      1.048   0.002424    0.02903   0.03544    0.4244
3791341538473498                    8.348      1.048   0.002628    0.03148   0.03546    0.4248
3791383038473467                    8.347      1.048   0.002764    0.03311   0.03548     0.425
3811234138456911                    8.086      1.015    0.02349     0.2905   0.06023    0.7449
3810496238459106                    8.085      1.015    0.02354     0.2912   0.06023    0.7449
3814281538427811f                   7.898     0.9913    0.03605     0.4564   0.06101    0.7724
3814285038427721                    7.898     0.9913    0.03605     0.4564   0.06101    0.7725
3814297338428399                    7.899     0.9914    0.03605     0.4564   0.06101    0.7724
3814281538427811                    7.898     0.9913    0.03605     0.4564   0.06101    0.7724
3814333138428993                    7.899     0.9914    0.03605     0.4564   0.06101    0.7724
3813811638429754                    7.899     0.9914    0.03605     0.4564   0.06101    0.7724
3814368538429917                    7.899     0.9914    0.03605     0.4564   0.06101    0.7724
3813778538430014                    7.899     0.9914    0.03605     0.4564   0.06101    0.7724
3813769438429768                    7.899     0.9914    0.03605     0.4564   0.06101    0.7724
3813686638430573                    7.899     0.9914    0.03605     0.4564   0.06101    0.7724
3813806638430339                    7.899     0.9914    0.03605     0.4564   0.06101    0.7724
3813340338431233                    7.899     0.9914    0.03605     0.4564   0.06101    0.7724
3813523838430877                    7.899     0.9914    0.03605     0.4564   0.06101    0.7724
3813227338431471                    7.899     0.9914    0.03605     0.4564   0.06101    0.7724
3813227338431422                    7.899     0.9914    0.03605     0.4564   0.06101    0.7724
3812623438431398                    7.899     0.9915    0.03605     0.4564   0.06101    0.7724
3812895638431427                    7.899     0.9915    0.03605     0.4564   0.06101    0.7724
3814355238429571                    7.899     0.9914    0.03605     0.4564   0.06101    0.7724
3807523638471224                    7.939     0.9964    0.05958     0.7504   0.04539    0.5718
3807733738471216                    7.939     0.9964    0.05958     0.7504   0.04539    0.5718
3807733738471216f                   7.939     0.9964    0.05958     0.7504   0.04539    0.5718
3807793838467209                    7.946     0.9973    0.05929     0.7461   0.04539    0.5713
3807805038467209                    7.946     0.9973    0.05929     0.7461   0.04539    0.5713
3808251838452063                    8.049       1.01    0.02701     0.3355   0.06041    0.7506
3808555838452082                    8.049       1.01    0.02701     0.3356   0.06041    0.7506
3807586638452021                    8.049       1.01      0.027     0.3354   0.06041    0.7506
3807905138452042                    8.049       1.01      0.027     0.3355   0.06041    0.7506
3806991638451983                    8.049       1.01    0.02699     0.3353   0.06041    0.7506
3807226638452004                    8.049       1.01    0.02699     0.3353   0.06041    0.7506
3806497238451899                    8.049       1.01    0.02698     0.3352   0.06041    0.7505
3806687638451947                    8.049       1.01    0.02698     0.3352   0.06041    0.7505
3808835938452100                    8.049       1.01    0.02702     0.3357   0.06041    0.7506
3809132138452111                    8.049       1.01    0.02702     0.3357   0.06041    0.7506
3825098638461343f                   8.357      1.049    0.02654     0.3176    0.0263    0.3147
3825301738461122                    8.357      1.049    0.02654     0.3176    0.0263    0.3147
3805858138451945                     8.05       1.01    0.02692     0.3344   0.06041    0.7505
3805910838451579f                   8.045       1.01     0.0274     0.3406   0.06043    0.7512
3805905538451373                    8.042      1.009    0.02772     0.3446   0.06045    0.7516
3805910838451579                    8.045       1.01    0.02744     0.3411   0.06044    0.7512
3805752438449629                     8.02      1.007    0.03019     0.3764   0.06056     0.755
3805700638449421                    8.018      1.006    0.03042     0.3794   0.06057    0.7554
3805590838448398                    8.012      1.006    0.03054     0.3811   0.06059    0.7563
3805540238447991                    8.009      1.005    0.03058     0.3819    0.0606    0.7567
3805505538447597                    8.007      1.005    0.03064     0.3826   0.06061     0.757
3805489838447344                    8.005      1.005    0.03067     0.3832   0.06062    0.7572
3805436338447144                    8.004      1.005     0.0307     0.3836   0.06062    0.7574
3805401738446862                    8.002      1.004    0.03074     0.3842   0.06063    0.7576
3805377238446697                    8.001      1.004    0.03077     0.3846   0.06063    0.7578
3805373838446674                    8.001      1.004    0.03077     0.3846   0.06063    0.7578
3805891338451063                    8.039      1.009    0.02812     0.3498   0.06047    0.7522
3805864638450776                    8.035      1.009    0.02851     0.3548   0.06048    0.7527
3820732738451881                    8.396      1.054    0.02715     0.3234    0.0263    0.3132
3820456838451736                    8.397      1.054    0.02724     0.3244    0.0263    0.3132
3820988238452013                    8.395      1.054    0.02707     0.3225    0.0263    0.3133
3792631138473909f                   8.298      1.041   0.009869     0.1189   0.03635    0.4381
3792588838473388                    8.298      1.041   0.009869     0.1189   0.03635    0.4381
3808753138448807                        8      1.004    0.03456     0.4319   0.06069    0.7585
3810330438449018                    7.991      1.003    0.03667     0.4588   0.06075    0.7602
3807986938463208                     7.96     0.9991     0.0586     0.7361   0.04539    0.5702
3807841538463290                     7.96     0.9991    0.05862     0.7364   0.04539    0.5703
3807831038467568                    7.945     0.9972    0.05934     0.7469   0.04539    0.5714
3807815338467209                    7.946     0.9973    0.05929     0.7461   0.04539    0.5713
3807809538466464                    7.949     0.9976    0.05917     0.7444   0.04539    0.5711
3807811738465743                    7.951     0.9979    0.05906     0.7428   0.04539    0.5709
3807837238464711                    7.955     0.9984     0.0589     0.7405   0.04539    0.5706
3807535038470413                     7.94     0.9965    0.05955       0.75   0.04539    0.5717
3807668338469507                     7.94     0.9966    0.05952     0.7496   0.04539    0.5717
3807765538468828                    7.941     0.9967     0.0595     0.7492   0.04539    0.5716
3807844938468637                    7.942     0.9968    0.05949      0.749   0.04539    0.5716
3807849438467941f                   7.944      0.997    0.05939     0.7476   0.04539    0.5714
3807499438471438f                   7.939     0.9964    0.05958     0.7504   0.04539    0.5718
3807509038471225                    7.939     0.9964    0.05958     0.7504   0.04539    0.5718
3807509038471225f                   7.939     0.9964    0.05958     0.7505   0.04539    0.5718
3807477738471286                    7.939     0.9964    0.05958     0.7505   0.04539    0.5718
3807843838464011                    7.957     0.9987    0.05879     0.7389   0.04539    0.5705
3823638238465513f                   8.346      1.048     0.0282     0.3378    0.0263    0.3151
3823623238465541                    8.346      1.048     0.0282     0.3379    0.0263    0.3151
3823638238465513                    8.346      1.048     0.0282     0.3378    0.0263    0.3151
3823658738465849                    8.346      1.048    0.02822     0.3381    0.0263    0.3151
3832474238461633                    8.327      1.045    0.03111     0.3736    0.0263    0.3159
3832725038461490                    8.326      1.045     0.0312     0.3747    0.0263    0.3159
3811169038449081f                   8.442       1.06    0.03332     0.3947    0.0263    0.3115
3811187538449067                    8.442       1.06    0.03332     0.3946    0.0263    0.3115
3811206538449095                    8.442       1.06     0.0333     0.3944    0.0263    0.3115
3811188638449096f                   8.442       1.06    0.03331     0.3946    0.0263    0.3115
3811202738449079                    8.442       1.06     0.0333     0.3945    0.0263    0.3115
3811172038449096                    8.443       1.06    0.03333     0.3948    0.0263    0.3115
3811169038449081                    8.443       1.06    0.03333     0.3948    0.0263    0.3115
3811188638449096                    8.442       1.06    0.03332     0.3947    0.0263    0.3115
3811355538425147f                   8.426      1.058    0.01613     0.1915   0.02658    0.3154
3811394238424942                    8.425      1.057    0.01611     0.1912   0.02658    0.3155
3806354038441962                     7.97          1    0.03183     0.3993   0.06074    0.7621
3805774838442586                    7.975      1.001    0.03161     0.3964   0.06072    0.7614
3809380738438375                    7.936     0.9961    0.03372     0.4249   0.06085    0.7667
3809313138438768                    7.943     0.9969    0.03316     0.4175   0.06084     0.766
3809476338437584f                   7.928      0.995    0.03443     0.4343   0.06086    0.7678
3809420438437973                     7.93     0.9953    0.03429     0.4324   0.06086    0.7674
3807998638463429                    7.977      1.001    0.05721     0.7172   0.04532    0.5682
3807999138463438f                   7.977      1.001    0.05715     0.7165   0.04532    0.5681
3792600738473392                    8.298      1.041   0.009884     0.1191   0.03636    0.4381
3792558638473033                    8.304      1.042   0.008975     0.1081   0.03624    0.4364
3792529638472692                     8.31      1.043   0.008126    0.09779   0.03614    0.4349
3792727538473442                    8.296      1.041    0.01017     0.1226   0.03641    0.4388
3793959838473336                    8.282      1.039    0.01217      0.147   0.03679    0.4442
3795048338473250                     8.27      1.038    0.01395     0.1686   0.03712    0.4489
3795239138473316                    8.268      1.038    0.01427     0.1726   0.03718    0.4497
...
mrt_3819674538423502trf_70l1135     8.395      1.054          0          0         0         0
